Version 4
SHEET 1 1424 876
WIRE 160 -256 -144 -256
WIRE 544 -256 160 -256
WIRE 688 -256 592 -256
WIRE 848 -256 752 -256
WIRE 992 -256 848 -256
WIRE -144 -240 -144 -256
WIRE 160 -240 160 -256
WIRE 544 -224 544 -256
WIRE 592 -224 592 -256
WIRE 848 -224 848 -256
WIRE -144 -144 -144 -160
WIRE 160 -144 160 -160
WIRE 288 -144 288 -192
WIRE 592 -112 592 -144
WIRE 848 -112 848 -160
WIRE 64 -80 -48 -80
WIRE 416 -80 384 -80
WIRE 544 -80 544 -144
WIRE 544 -80 496 -80
WIRE 992 -80 992 -96
WIRE 64 16 -160 16
WIRE 416 16 384 16
WIRE 544 16 544 -80
WIRE 544 16 496 16
WIRE 992 16 992 0
WIRE 544 32 544 16
WIRE -48 112 -48 -80
WIRE 64 112 -48 112
WIRE 400 112 384 112
WIRE 496 112 400 112
WIRE 544 144 544 128
WIRE 544 144 432 144
WIRE 544 160 544 144
WIRE 752 192 752 -256
WIRE 896 192 896 176
WIRE -160 208 -160 16
WIRE 64 208 -160 208
WIRE 400 208 400 112
WIRE 400 208 384 208
WIRE 896 224 896 192
WIRE 1040 224 1040 176
WIRE -160 240 -160 208
WIRE 544 256 544 240
WIRE 544 256 480 256
WIRE 544 272 544 256
WIRE 64 304 -336 304
WIRE 432 304 432 144
WIRE 432 304 384 304
WIRE 896 320 896 304
WIRE 1040 320 1040 304
WIRE -336 336 -336 304
WIRE 752 336 592 336
WIRE 752 368 752 336
WIRE 64 400 -256 400
WIRE 480 400 480 256
WIRE 480 400 384 400
WIRE -336 432 -336 416
WIRE -256 432 -256 400
WIRE -256 432 -336 432
WIRE -336 448 -336 432
WIRE -48 464 -224 464
WIRE -224 496 -224 464
WIRE -48 496 -48 464
WIRE -32 496 -48 496
WIRE 64 496 48 496
WIRE 592 496 592 336
WIRE 592 496 384 496
WIRE 752 496 752 448
WIRE -48 592 -48 496
WIRE -32 592 -48 592
WIRE 64 592 48 592
WIRE 400 592 384 592
WIRE 496 592 480 592
WIRE -224 608 -224 576
WIRE 224 672 224 656
FLAG -144 -144 0
FLAG 544 272 0
FLAG 224 672 0
FLAG 496 592 0
FLAG -336 448 0
FLAG 592 -112 0
FLAG 848 -112 0
FLAG -144 -256 IN
FLAG 848 -256 OUT
FLAG -160 240 0
FLAG -224 608 0
FLAG 896 320 0
FLAG 896 192 Vcc
FLAG 288 -192 Vcc
FLAG 752 496 0
FLAG 992 16 0
FLAG 1040 320 0
FLAG 1040 176 SW
FLAG 944 0 SW
FLAG -48 -80 Vcc
SYMBOL LT3751 224 256 R0
SYMATTR InstName U1
SYMBOL voltage -144 -256 R0
SYMATTR InstName V1
SYMATTR Value 24
SYMBOL res 144 -256 R0
SYMATTR InstName R1
SYMATTR Value 40.2K
SYMBOL res 512 -96 R90
WINDOW 0 0 56 VBottom 2
WINDOW 3 32 56 VTop 2
SYMATTR InstName R2
SYMATTR Value 18.2K
SYMBOL res 512 0 R90
WINDOW 0 0 56 VBottom 2
WINDOW 3 32 56 VTop 2
SYMATTR InstName R3
SYMATTR Value 40.2K
SYMBOL nmos 944 -80 R0
SYMATTR InstName Q1
SYMATTR Value IRFP4668
SYMBOL res 528 144 R0
SYMATTR InstName R4
SYMATTR Value 12m
SYMBOL res 384 608 R270
WINDOW 0 32 56 VTop 2
WINDOW 3 0 56 VBottom 2
SYMATTR InstName R5
SYMATTR Value 1.15k
SYMBOL res -48 512 R270
WINDOW 0 32 56 VTop 2
WINDOW 3 0 56 VBottom 2
SYMATTR InstName R10
SYMATTR Value 100K
SYMBOL res -48 608 R270
WINDOW 0 32 56 VTop 2
WINDOW 3 0 56 VBottom 2
SYMATTR InstName R11
SYMATTR Value 100K
SYMBOL ind2 528 -240 R0
WINDOW 0 -3 41 Right 2
WINDOW 3 -3 74 Right 2
SYMATTR InstName L1
SYMATTR Value 10µ
SYMATTR Type ind
SYMATTR SpiceLine Rser=15m
SYMBOL ind2 608 -128 R180
WINDOW 0 -1 71 Right 2
WINDOW 3 0 37 Right 2
SYMATTR InstName L2
SYMATTR Value 1000µ
SYMATTR Type ind
SYMBOL diode 688 -240 R270
WINDOW 0 32 32 VTop 2
WINDOW 3 0 32 VBottom 2
SYMATTR InstName D1
SYMATTR Value MUR460
SYMBOL cap 832 -224 R0
SYMATTR InstName C1
SYMATTR Value 3.3µ
SYMBOL voltage -224 480 R0
SYMATTR InstName V3
SYMATTR Value 3.3
SYMBOL voltage 896 208 R0
SYMATTR InstName V4
SYMATTR Value 6.5
SYMBOL Res 976 -192 R0
SYMATTR InstName R6
SYMATTR Value 10
SYMBOL Res 736 352 R0
SYMATTR InstName R7
SYMATTR Value 0
SYMBOL voltage -336 320 R0
SYMATTR InstName V5
SYMATTR Value PULSE(0 5 1m 1u 1u 200m 600m)
SYMBOL voltage 1040 208 R0
SYMATTR InstName V6
SYMATTR Value PULSE(0 5 500m 1u 1u 1m 1)
SYMBOL nmos 496 32 R0
SYMATTR InstName Q2
SYMATTR Value IRFP4668
SYMBOL Res 736 176 R0
SYMATTR InstName R8
SYMATTR Value 2.78k
TEXT 568 -256 Bottom 2 !K1 L1 L2 1
TEXT 1048 584 Left 2 !.tran 10m startup
TEXT 352 -288 Bottom 2 ;LT3751 - Capacitor Charger Controller with Regulation\nInput: 24V   Output: 300V
TEXT -296 688 Left 2 ;Note:\n  If the simulation model is not found please update with the "Sync Release" command from the "Tools" menu.\n  It remains the customer's responsibility to verify proper and reliable operation in the actual application.\n  Component substitution and printed circuit board layout may significantly affect circuit performance or reliability.\n  Contact your local sales representative for assistance. This circuit is distributed to customers only for use with LTC parts.\n  Copyright © 2010 Linear Technology Inc. All rights reserved.
TEXT 1104 -360 Center 2 ;Scale charge time by the output capacitance\nused in the practical circuit.  For simulation, a 3.3uF\ncap is used to reduce simulation time.
